LAMMPS (2 Aug 2023)
Loaded 1 plugins from /opt/deepmd-kit-3.0.0/lib/deepmd_lmp
# gas phase methane

units           metal
boundary        p p p
atom_style      atomic

neighbor        1.0 bin
neigh_modify    every 10 delay 0 check no

read_data	conf.lmp
Reading data file ...
  triclinic box = (0 0 0) to (10.114259 10.263124 10.216793) with tilt (0.036749877 0.13833062 -0.056322169)
  reading atoms ...
  5 atoms
mass 		1 1
mass		2 12

pair_style	deepmd graph.pb
Summary of lammps deepmd module ...
  >>> Info of deepmd-kit:
  installed to:       /opt/deepmd-kit-3.0.0
  source:
  source branch:      HEAD
  source commit:      50a7f35
  source commit at:   2024-03-03 17:25:20 -0500
  support model ver.: 1.1
  build variant:      cuda
  build with tf inc:  /opt/deepmd-kit-3.0.0/lib/python3.10/site-packages/tensorflow/include;/opt/deepmd-kit-3.0.0/include
  build with tf lib:  /opt/deepmd-kit-3.0.0/lib/python3.10/site-packages/tensorflow/libtensorflow_cc.so.2
  build with pt lib:  torch;torch_library;/opt/deepmd-kit-3.0.0/lib/python3.10/site-packages/torch/lib/libc10.so;/usr/local/cuda/lib64/stubs/libcuda.so;/usr/local/cuda/lib64/libnvrtc.so;/usr/local/cuda/lib64/libnvToolsExt.so;/usr/local/cuda/lib64/libcudart.so;/opt/deepmd-kit-3.0.0/lib/python3.10/site-packages/torch/lib/libc10_cuda.so
  set tf intra_op_parallelism_threads: 0
  set tf inter_op_parallelism_threads: 0
  >>> Info of lammps module:
  use deepmd-kit at:  /opt/deepmd-kit-3.0.0pair_coeff	* *

velocity        all create 50.0 23456789
fix             1 all nvt temp 50.0 50.0 0.5
timestep        0.001

thermo_style    custom step pe ke etotal temp press vol
thermo          100
dump		1 all custom 100 ch4.dump id type x y z

run             5000

CITE-CITE-CITE-CITE-CITE-CITE-CITE-CITE-CITE-CITE-CITE-CITE-CITE

Your simulation uses code contributions which should be cited:

- USER-DEEPMD package:

@article{Wang_ComputPhysCommun_2018_v228_p178,
  author = {Wang, Han and Zhang, Linfeng and Han, Jiequn and E, Weinan},
  doi = {10.1016/j.cpc.2018.03.016},
  url = {https://doi.org/10.1016/j.cpc.2018.03.016},
  year = 2018,
  month = {jul},
  publisher = {Elsevier {BV}},
  volume = 228,
  journal = {Comput. Phys. Commun.},
  title = {{DeePMD-kit: A deep learning package for many-body potential energy representation and molecular dynamics}},
  pages = {178--184}
}
@misc{Zeng_JChemPhys_2023_v159_p054801,
  title  = {{DeePMD-kit v2: A software package for deep potential models}},
  author =   {Jinzhe Zeng and Duo Zhang and Denghui Lu and Pinghui Mo and Zeyu Li
         and Yixiao Chen and Mari{\'a}n Rynik and Li'ang Huang and Ziyao Li and
         Shaochen Shi and Yingze Wang and Haotian Ye and Ping Tuo and Jiabin
         Yang and Ye Ding and Yifan Li and Davide Tisi and Qiyu Zeng and Han
         Bao and Yu Xia and Jiameng Huang and Koki Muraoka and Yibo Wang and
         Junhan Chang and Fengbo Yuan and Sigbj{\o}rn L{\o}land Bore and Chun
         Cai and Yinnian Lin and Bo Wang and Jiayan Xu and Jia-Xin Zhu and
         Chenxing Luo and Yuzhi Zhang and Rhys E A Goodall and Wenshuo Liang
         and Anurag Kumar Singh and Sikai Yao and Jingchao Zhang and Renata
         Wentzcovitch and Jiequn Han and Jie Liu and Weile Jia and Darrin M
         York and Weinan E and Roberto Car and Linfeng Zhang and Han Wang},
  journal =  {J. Chem. Phys.},
  volume =   159,
  issue =    5,
  year =    2023,
  pages  =   054801,
  doi =      {10.1063/5.0155600},
}

CITE-CITE-CITE-CITE-CITE-CITE-CITE-CITE-CITE-CITE-CITE-CITE-CITE

Generated 0 of 1 mixed pair_coeff terms from geometric mixing rule
Step         PotEng         KinEng         TotEng          Temp          Press          Volume
0  -219.77406      0.025852029   -219.74821      50            -779.25188      1060.5429
Averages over the last 26 of 51 rows, steps 2500 to 5000:
PotEng KinEng TotEng Temp Press Volume
-219.783 0.0238765 -219.759 46.1791 -63.2221 1060.54
Loop time of 13.8355 on 1 procs for 5000 steps with 5 atoms
